<?xml version="1.0" encoding="UTF-8"?>

<!-- generated on 2019年12月30日 星期一 19时18分34秒 by Eclipse SUMO netedit Version v1_4_0+0055-11695c0903
<configuration xmlns:xsi="http://www.w3.org/2001/XMLSchema-instance" xsi:noNamespaceSchemaLocation="http://sumo.dlr.de/xsd/netconvertConfiguration.xsd">

    <input>
        <sumo-net-file value="/home/yy/intelligent_lights/intelligent_traffic.net.xml"/>
    </input>

    <output>
        <output-file value="/home/yy/intelligent_lights/intelligent_traffic.net.xml"/>
    </output>

    <processing>
        <geometry.min-radius.fix.railways value="false"/>
        <geometry.max-grade.fix value="false"/>
        <offset.disable-normalization value="true"/>
        <lefthand value="false"/>
    </processing>

    <junctions>
        <no-turnarounds value="true"/>
        <junctions.corner-detail value="5"/>
        <junctions.limit-turn-speed value="5.5"/>
        <rectangular-lane-cut value="false"/>
    </junctions>

    <pedestrian>
        <walkingareas value="false"/>
    </pedestrian>

    <netedit>
        <additional-files value="/home/yy/intelligent_lights/123.add.xml"/>
    </netedit>

    <report>
        <aggregate-warnings value="5"/>
    </report>

</configuration>
-->

<additional xmlns:xsi="http://www.w3.org/2001/XMLSchema-instance" xsi:noNamespaceSchemaLocation="http://sumo.dlr.de/xsd/additional_file.xsd">
    <e1Detector id="1" lane="end1_junction_1" pos="450.00" freq="5.00" file="e1Detector_end1_junction_1_7.xml"/>
</additional>
